src/test/resources/pst_special/process2/divacaOutage/20260620_1130_2D1_UX0.uct
##C 2007.05.01
##N
##ZAT
OGREUT21 Greuth       0 0        79.0406 4.46205 6.96570 -04.272 5.01399 8.41671 3.66788 -51.726                               F
OLIENN11 Lienz        0 0        6.85047 1.09086 3.56483 -5.4308 2.91862 2.80158 1.98102 -7.0777                               F
OLIENN21 Lienz        0 0        60.8247 17.1955 -495.64 9.21859 76.0275 -657.29 73.8724 6.24024                               F
OLIENN22 Lienz        0 0        9.08735 4.35550 6.24075 6.78738
OMALTA21 Malta Haupts 0 2 977.79 639.968 3.81999 -834.08 -83.734 990.421 -6043.7 268.635 -585.64                               F
OMALTA22 Malta Haupts 0 0        4.87407 3.31372 -904.16 -69.901 509.733 -1558.6 0.38377 -26.461                               F
OREISS21 KW Reisseck  0 0        7.08920 21.8093 -062.47 8.88900 461.542 -800.60 60.2852 4.93856                               F
OROSEG21 Rosegg       0 0        5.44724 1.99624 -79.592 -2.5962 7.98983 -66.053 9.33881 -8.9598                               F
OTAUER11 Tauern       0 0        1.62092 4.56322 1.14394 -07.577 3.15817 1.61886 3.91677 -94.668                               F
OTAUER12 Tauern       0 0        4.46543 3.41816 2.20389 1.56685
##ZHR
HMELIN1  Melina       0 0        3.02089 7.52750 1.10439 8.16450
HMELIN2  Melina       0 0        736.351 -20.539 5.19844 0.64222
HPEHLI2  Pehlin       0 0        04.0675 -70.826 5.26010 6.89682
HRIJEK2  TE Rijeka    0 0        1.10120 4.70648 9.28984 9.94662
HSENJ 2  HE Senj      0 0        -50.051 51.6780 3.84059 1.32317
HTEPLO2  TE Plomin    0 2 287.10 157.035 2.91144 -333.42 76.5279 -481.03 -602.30 77.8967 -904.87                               F
HTUMBR1  Tumbri       0 0        412.796 48.3252 7.26795 2.68632
HVELEB1  RHE Velebit  0 0        76.7975 95.0252 7.07876 0.05719
##ZIT
IMFTV111 MONFALC.CE g 0 0        7.78459 8.53676 3.27244 9.03965
IMFTV121 MONFALC.CE g 0 0        4.79401 3.83820 5.84743 8.85705
IPDRV121 PADRICIANO g 0 0        15.5456 -3.7151 1.76380 9.92110
IPDRV122 PADRICIANO g 0 0        5.69459 6.35923 7.46472 3.47981
IPLNV111 PLANAIS    g 0 0        289.708 -0.4701 6.84924 4.20057
IRDPVA11 REDIPUGLIA g 0 0        12.9327 -71.636 0.03496 5.29010
IRDPVA21 REDIPUGLIA g 0 0        81.1915 54.0364 1.10240 6.63949
IUSTV111 UDINE SUD  g 0 0        6.22879 6.47481 7.30522 5.49534
##ZMK
##ZNL
##ZPT
##ZPL
##ZRO
##ZSK
##ZSI
LBERIC1  BERICEVO     0 0        9.18048 5.47956 3.52498 3.80231
LBERIC2  BERICEVO     0 0        67.4169 22.4202 9.70567 1.91087
LDIVAC11 DIVACA       0 0        6.42363 3.43285 7.51775 5.85508
LDIVAC12 LDIVAC12     0 0        1.37890 6.45011 3.44242 8.93853
LDIVAC21 DIVACA       0 0        4.79879 8.93156 0.76187 5.36113
LDIVAC22 DIVACA       0 0        3.74931 8.16487 0.57138 3.57650
LDIVAC51 LDIVAC51     0 0        04.5509 3.87137 9.09775 2.48320
LKLECE2  KLECE        0 0        29.3558 15.0445 5.74761 7.95049
LKRSKO1  KRSKO        0 2 544.17 14.1374 -8.0573 -515.84 3.93426 1.83059 -506.78 549.439 -240.91                               N
LOKROG1  OKROGLO      0 0        767.578 8.72250 8.42060 2.21568
LPODLO1  PODLOG       0 0        73.9908 39.7433 7.88174 4.96103
LPODLO21 PODLOG       0 0 797.56 051.805 80.1583 -7.0036 -2.1712 2.17620 -279.48 51.3754 -512.97                               L
##ZXX
XLI_SO21 LNZO    211  0 0        6.73275 0.76396 5.73991 3.93562
XME_DI11              0 0        2.08135 4.59052 5.99554 1.24223
XPA_DI21              0 0        5.46716 0.88207 2.44688 5.21526
XPE_DI21              0 0        4.92977 3.53967 0.06766 0.26839
XRE_DI11              0 0        9.04366 4.98995 5.58229 8.96062
##L
HMELIN1  HTUMBR1  1 0 0.2183 37.373 104.2329   1920 
HMELIN1  HVELEB1  1 0 2.2932 59.651 592.3488   1920 
HMELIN1  XME_DI11 1 0 7.2113 39.377 814.0146   1920 
HMELIN2  HPEHLI2  1 0 2.2087 6.7172 66.51255    815 
HMELIN2  HPEHLI2  2 0 4.6130 0.2812 14.07304    960 
HMELIN2  HRIJEK2  1 0 4.3382 0.5779 48.65287   1630 
HMELIN2  HRIJEK2  2 0 7.7792 7.6982 82.91531   1630 
HMELIN2  HSENJ 2  1 0 9.0600 46.189 049.6701
HMELIN2  HTEPLO2  1 0 3.1599 15.581 370.0212    950 
IMFTV111 IRDPVA11 1 8 1.7709 7.0678 04.71882 1740
IMFTV121 IPDRV121 1 0 5.9766 52.529 399.5122 800
IMFTV121 IRDPVA21 1 0 0.5374 0.9456 11.93720 716
IPLNV111 IRDPVA11 1 0 3.1152 3.3092 906.3565 2190
IRDPVA21 IPDRV121 1 0 2.9097 36.419 467.6745 713
IUSTV111 IRDPVA11 1 0 8.3516 6.9706 86.04105 2790
IUSTV111 IRDPVA11 2 0 1.9087 7.9105 72.96202 2790
LBERIC1  LKRSKO1  1 0 6.8039 33.859 072.7469 1920
LBERIC1  LKRSKO1  2 0 6.6852 36.924 772.2270 1920
LBERIC1  LPODLO1  1 0 5.1445 14.609 322.3908 1920
LBERIC2  LKLECE2  1 0 9.6342 5.9600 88.13911 960
LBERIC2  LKLECE2  2 1 3.3900 25.849 461.8430 640
LBERIC2  LPODLO21 2 1 5.7993 16.289 511.2190 640
LDIVAC11 LBERIC1  1 0 9.5617 59.561 745.4477 1920
LDIVAC11 XME_DI11 1 0 4.7058 96.966 204.9739 1920
LDIVAC12 LDIVAC11 2 7 4.3079 6.0099 1.833724 9999
LDIVAC21 LDIVAC22 1 2 2.3285 8.4094 9.788117 9999
LDIVAC21 LKLECE2  1 0 7.5778 97.005 300.6631 960
LDIVAC22 XPA_DI21 1 0 5.1440 5.2010 18.28222 960
LDIVAC22 XPE_DI21 1 0 2.2800 23.252 92.73701 960
LOKROG1  LBERIC1  1 0 7.9810 8.6192 45.18048 1600
LOKROG1  LBERIC1  2 0 4.1118 6.9660 86.80239 1600
LPODLO21 LBERIC2  1 0 7.1454 07.142 044.2768 960
OGREUT21 OLIENN21 1 0 2.1302 63.009 707.6248 2080
OLIENN11 OTAUER11 1 0 2.4018 37.021 756.7767 2180
OLIENN11 OTAUER12 2 0 8.3616 98.945 800.5307 2180
OLIENN21 OLIENN22 1 7 1.6235 8.8786 5.903046 2154
OLIENN21 OMALTA21 1 0 1.6572 50.132 798.6298 2400
OLIENN21 OMALTA22 2 0 2.3148 28.296 265.8314 2000
OLIENN21 OROSEG21 1 0 9.9273 23.539 722.0574 2000
OLIENN22 XLI_SO21 1 0 2.3545 06.496 316.2463 637
OMALTA21 OMALTA22 1 2 1.8969 2.0618 6.700772 2000
OMALTA21 OREISS21 1 0 7.3641 6.6459 621.0358 1440
XPA_DI21 IPDRV122 1 0 9.8986 5.3376 30.59726 900
XRE_DI11 IRDPVA11 1 0 3.7530 4.0089 07.31331 2220
##T
HMELIN2  HMELIN1  1 8 819.2 083.9 904.9 3.9780 28.013 -2.37583 2.3266
HMELIN2  HMELIN1  2 0 679.5 355.3 301.0 4.9653 83.710 -3.95952 8.8026
IPDRV121 IPDRV122 1 0 877.8 811.9 546.1 8.3094 73.097 -7.04785 4.8328
IRDPVA21 IRDPVA11 1 0 512.5 156.6 443.0 9.1234 23.229 -3.47948 6.2371
IRDPVA21 IRDPVA11 2 8 710.4 627.8 170.6 1.4563 27.289 -0.34655 0.4077
LBERIC1  LBERIC2  1 0 229.4 318.0 838.7 9.2819 03.674 -56.2588 1.2515
LDIVAC11 LDIVAC12 1 8 092.2 248.8 1200. 1.8174 95.885 -0.90881 7.8910
LDIVAC51 LDIVAC11 1 0 904.6 542.4 158.9 6.0704 0.2923 -278.341 86.654
LDIVAC51 LDIVAC21 1 8 478.9 595.3 280.4 9.7989 99.813 -53.5957 1.3867
LDIVAC51 LDIVAC21 2 0 872.9 217.5 099.0 5.3541 21.796 -44.2641 7.9656
OLIENN21 OLIENN11 1 0 732.6 265.7 703.2 9.9811 46.182 -61.5257 6.3197
OLIENN21 OLIENN11 2 0 905.9 089.9 049.8 4.1634 12.812 -67.2618 8.8975
OLIENN21 OLIENN22 2 0 403.7 371.3 641.9 8.9033 50.287 6.632259 4.1594
##R
HMELIN2  HMELIN1  1 2.722  1   0
HMELIN2  HMELIN1  2 6.269  1   0
IPDRV121 IPDRV122 1                    3.628 27.79 16   0 2.988 SYMM
LDIVAC11 LDIVAC12 1                    1.190 64.98 32   0 2.865 SYMM
LDIVAC51 LDIVAC11 1 5.177 12  -1
LDIVAC51 LDIVAC21 1 4.894 12  -1
LDIVAC51 LDIVAC21 2 7.421 12  -1
OLIENN21 OLIENN11 1                    7.480 70.87 13   0       ASYM
OLIENN21 OLIENN11 2                    7.058 27.31 13   0       ASYM
OLIENN21 OLIENN22 2                    0.083 35.03 32   0       SYMM
